iidm/iidm-xml-converter/src/test/resources/vsc-STATE.xiidm
<?xml version="1.0" encoding="UTF-8"?>
<iidm:network xmlns:iidm="http://www.itesla_project.eu/schema/iidm/1_0" id="hvdctest" caseDate="2016-06-27T16:34:55.930+02:00" forecastDistance="0" sourceFormat="test">
    <iidm:substation id="S1">
        <iidm:voltageLevel id="VL1">
            <iidm:busBreakerTopology>
                <iidm:bus id="B1"/>
            </iidm:busBreakerTopology>
            <iidm:vscConverterStation id="C1" p="100.0" q="50.0"></iidm:vscConverterStation>
        </iidm:voltageLevel>
    </iidm:substation>
</iidm:network>
